REMARK  10 active torsions:
REMARK  status: ('A' for Active; 'I' for Inactive)
REMARK       I    between atoms: C10_2  and  N5_4 
REMARK    1  A    between atoms: C5_6  and  N5_4 
REMARK    2  A    between atoms: C4_7  and  O4_8 
REMARK    3  A    between atoms: C2_11  and  C1_12 
REMARK    4  A    between atoms: C2_11  and  O3_15 
REMARK    5  A    between atoms: C6_18  and  C7_19 
REMARK    6  A    between atoms: C7_19  and  O7_20 
REMARK    7  A    between atoms: C7_19  and  C8_22 
REMARK    8  A    between atoms: C8_22  and  O8_23 
REMARK    9  A    between atoms: C8_22  and  C9_25 
REMARK   10  A    between atoms: C9_25  and  O9_26 
ROOT
ATOM      1  C5  SIA d          -1.962  56.577  -9.699  0.00  0.00     0.145 C 
ATOM      2  C4  SIA d          -0.658  56.633  -8.883  0.00  0.00     0.149 C 
ATOM      3  C3  SIA d          -0.326  58.079  -8.498  0.00  0.00     0.114 C 
ATOM      4  C2  SIA d          -1.526  58.675  -7.755  0.00  0.00     0.256 C 
ATOM      5  O6  SIA d          -2.700  58.636  -8.583  0.00  0.00    -0.336 OA
ATOM      6  C6  SIA d          -3.112  57.306  -8.978  0.00  0.00     0.182 C 
ENDROOT
BRANCH   6   7
ATOM      7  C7  SIA d          -4.337  57.415  -9.909  0.00  0.00     0.180 C 
BRANCH   7   8
ATOM      8  O7  SIA d          -3.890  57.727 -11.216  0.00  0.00    -0.390 OA
ATOM      9  H72 SIA d          -3.410  58.604 -11.204  0.00  0.00     0.210 HD
ENDBRANCH   7   8
BRANCH   7  10
ATOM     10  C8  SIA d          -5.308  58.513  -9.441  0.00  0.00     0.173 C 
BRANCH  10  11
ATOM     11  O8  SIA d          -5.556  58.384  -8.053  0.00  0.00    -0.391 OA
ATOM     12  H82 SIA d          -5.976  57.495  -7.870  0.00  0.00     0.210 HD
ENDBRANCH  10  11
BRANCH  10  13
ATOM     13  C9  SIA d          -6.629  58.441 -10.183  0.00  0.00     0.198 C 
BRANCH  13  14
ATOM     14  O9  SIA d          -7.656  58.982  -9.364  0.00  0.00    -0.398 OA
ATOM     15  H95 SIA d          -7.778  58.405  -8.557  0.00  0.00     0.209 HD
ENDBRANCH  13  14
ENDBRANCH  10  13
ENDBRANCH   7  10
ENDBRANCH   6   7
BRANCH   1  16
ATOM     16  N5  SIA d          -2.334  55.193  -9.914  0.00  0.00    -0.352 N 
ATOM     17  C10 SIA d          -2.849  54.810 -11.076  0.00  0.00     0.214 C 
ATOM     18  C11 SIA d          -3.519  53.446 -11.106  0.00  0.00     0.117 C 
ATOM     19  O10 SIA d          -2.803  55.499 -12.094  0.00  0.00    -0.274 OA
ATOM     20  H52 SIA d          -2.202  54.523  -9.183  0.00  0.00     0.163 HD
ENDBRANCH   1  16
BRANCH   2  21
ATOM     21  O4  SIA d           0.406  56.091  -9.648  0.00  0.00    -0.393 OA
ATOM     22  H42 SIA d           0.525  56.629 -10.483  0.00  0.00     0.210 HD
ENDBRANCH   2  21
BRANCH   4  23
ATOM     23  C1  SIA d          -1.767  57.870  -6.473  0.00  0.00     0.238 C 
ATOM     24  O1B SIA d          -2.881  57.338  -6.269  0.00  0.00    -0.644 OA
ATOM     25  O1A SIA d          -0.835  57.771  -5.654  0.00  0.00    -0.644 OA
ENDBRANCH   4  23
BRANCH   4  26
ATOM     26  O3  SIA d          -1.297  59.998  -7.411  0.00  0.00    -0.357 OA
ATOM     27  H33 SIA d          -0.483  60.056  -6.833  0.00  0.00     0.213 HD
ENDBRANCH   4  26
TORSDOF 10
